Version 4
SHEET 1 880 680
WIRE 160 48 48 48
WIRE 48 80 48 48
WIRE 160 80 160 48
WIRE 160 224 160 160
FLAG 160 304 0
FLAG 48 160 0
SYMBOL res 144 64 R0
SYMATTR InstName R1
SYMATTR Value 330k
SYMBOL res 144 208 R0
SYMATTR InstName R2
SYMATTR Value 100k
SYMBOL voltage 48 64 R0
WINDOW 123 0 0 Left 0
WINDOW 39 0 0 Left 0
SYMATTR InstName V1
SYMATTR Value 5
TEXT 408 232 Left 2 !.op
